---
title: "An introduction to Molecular Dynamics"
teaching: 20
exercises: 30
questions:
---

# What is LAMMPS?

LAMMPS (Large-scale Atomic/Molecular Massively Parallel Simulator) is a versatile classical molecular dynamics software package developed by Sandia National Laboratories and by its wide user-base.

It can be downloaded from [https://lammps.sandia.gov/download.html](https://lammps.sandia.gov/download.html)

Everything we are covering today (and a lot of other info) can be found in the [LAMMPS User Manual](https://lammps.sandia.gov/doc/Manual.html)

# Running LAMMPS on ARCHER2

[comment]: # (add image w/ login/compute nodes and filesystem explanation)
ARCHER2 uses a module system. In general, you can run LAMMPS on ARCHER2 by using the LAMMPS module:

```bash
ta058js@ln03:~> module avail lammps

   lammps/29_Sep_2021

```

Running `module load lammps` will set up your environment to use LAMMPS.
For this course, we will be using certain LAMMPS packages that are not included in the central module.
We have built a version of LAMMPS that can be accessed by ensuring that the following commands are run prior to executing your LAMMPS command.

```bash
module load PrgEnv-gnu
module load cray-python

export LAMMPS_DIR=/work/ta058/shared/lammps_build/
```

The build instructions for this version are described in the next section of the course.

Once your environment is set up, you will have access to the `lmp` LAMMPS executable.
Note that you will only be able to run this on a single core on the ARCHER2 login node.

## Submitting a job to the compute nodes

To run LAMMPS on multiple cores/nodes, you will need to submit a job to the ARCHER2 compute nodes.
The compute nodes do not have access to the landing `home` filesystem -- this filesystem is to store useful/important information.
On ARCHER2, when submitting jobs to the compute nodes, make sure that you are in your `/work/ta058/ta058/<username>` directory.

For this course, we have prepared a number of exercises.
You can get a copy of these exercises by running (make sure to run this from `/work`):

[comment]: # (change to intro link)
```bash
svn checkout https://github.com/EPCCed/archer2-advanced-use-of-lammps/trunk/exercises
```

[comment]: # (change exercise names and file names)
Once this is downloaded, please  `cd exercises/1-performance-exercise/`.
In this directory you will find three files:

  - `sub.slurm` is a Slurm submission script -- this will let you submit jobs to the compute nodes.
    Initially, it will run a single core job, but we will be editing it to run on more cores.
  - `in.ethanol` is the LAMMPS input script that we will be using for this exercise.
    This script is meant to run a small simulation of 125 ethanol molecules in a periodic box.
  - `data.ethanol` is a LAMMPS data file for a single ethanol molecule.
    This template will be copied by the `in.lammps` file to generate our simulation box.

# What is Molecular Dynamics

Molecular Dynamics is, simply, the application of Newtown's laws of motion to systems of particles that can range in size from atoms, course-grained moieties, entire molecules, or even grains of sand.
In practical terms, any MD software follows the same basic steps:

  1. Take the initial positions of the particles in the simulation box and calculate the total force that apply to each particle, using the chosen force-field.
  2. Use the calculated forces to calculate the acceleration to add to each particle;
  3. Use the acceleration to calculate the new velocity of each particle;
  4. Use the the new velocity of each particle, and the defined time-step, to calculate a new position for each particle.

With the new particle positions, the cycle continues, one very small time-step at a time.

[comment]: # (make image better)
{% include figure.html url="" max-width="80%" file="/fig/2_MD-primer/MD.png" alt="How MD Works" %}

With this in mind, we can take a look at a very simple example of a LAMMPS input file, `in.lj`, and discuss each command -- and their related concepts -- one by one.
The order that the commands appear in **can** be important, depending on the exact details.
Always refer to the LAMMPS manual to check.

## Simulation setup

The first thing we have to do is chose a style of units.
This can be achieved by the `units` command:

```
units         lj
```

[comment]: # (link?)
LAMMPS has several different unit styles, useful in different types of simulations.
In this example, we are using `lj`, or Lennard-Jones units.
These are dimentionless units, that are defined on the LJ potential parameters.
They are computationally advantageous because they're usually close to unity, and required less precise (lower number of bits) floating point variables -- which in turn reduced the memory requirements, and increased calculation speed.

The next line defines what style of `atoms` (LAMMPS's terminology is for particle) to use.

```
atom_style    atomic
```

This impacts on what attributes each atom has associated with it -- this cannot be changed during a simulation
Every style stores: coordinates, velocities, atom IDs, and atom types.
The `atomic` style doesn't add any further attributes.

We then choose 3 dimentions.

```
dimension     3
```

LAMMPS is also capable of simulating two-dimentional systems.

The boundary command sets the styles for the boudaries for the simulation box.

```
boundary      p p p
```

Each of the three letters after the keyword corresponds to a direction (x, y, z), and `p` means that the selected boundary is to be periodic.
Other boundary conditions are available (fixed, shrink-wrapped, and shrink-wrapped with minimum).

{% include figure.html url="" max-width="80%" file="/fig/2_MD-primer/PBC.png" alt="Periodic Boundary Conditions" %}

Periodic boundary conditions allow the approximation of an infinite system by simulating only a small part, a unit-cell.
The most common shapes of (3D) unit-cell is cuboidal, but any shape that completely tesselates 3D space can be used.
The topology of PBCs is such that a particle leaving one side of the unit cell, it reappears on the other side.
A 2D map with PBC could be perfectly mapped to a torus.

Another key aspect of using PBCs is the use of **minimum-image convention** for calculating interactions between particles.
This guarantees that each particle interacts only with the closest *image* of another particle, no matter with unit-cell (the original simulation box or one of the periodic images) it belongs to.

The lattice command defines a set of points in space, where sc is simple cubic.

```
lattice       sc 0.60
```

In this case, because we are working in LJ units, the number `0.60` refers to the LJ density `ρ*`.

The region command defines a geometric region in space.

```
region        region1 block 0 10 0 10 0 10
```

The arguments are `region1`, a name we give to the region, `block`, the type of region (cuboid), and the numbers are the low and high values for x, y, and z.

We then create a box with one atom type, using the region we defined previously

```
create_box    1 region1
```

And finally, we create the atoms in the box, using the box and lattice previously created

```
create_atoms  1 box
```

The final result is a box like this:

{% include figure.html url="" max-width="80%" file="/fig/2_MD-primer/lattice.png" alt="Lattice" %}

## Inter-particle interactions

Now that we have initial positions for our particles in a simulation box, we have to define how they will interact with each-other.

The first line in this section defines the style of interaction our particles will use.

```
pair_style  lj/cut 3.5
```

In this case, Lennard-Jones interactions, cut at 3.5 Å.
Cutting the interactions at a certain distance (as oppposed to calculating interactions up to an 'infinite' distance, drastically reduces the computation time.
This approximation is only valid because the LJ potential is assymptotic to zero at high *d* distance between particles.

[comment]: # (side by side?)
{% include figure.html url="" max-width="80%" file="/fig/2_MD-primer/dist.png" alt="Distance between particles" %}

{% include figure.html url="" max-width="80%" file="/fig/2_MD-primer/lj_potential.png" alt="Lennard-Jones potential" %}

To make sure there is no discontinuity at the cutoff point, we can shift the potential.
This subtracts the value of the potential at the cutoff point (which should be very low) from the entire function, making the energy at the cutoff equal to zero.

```
pair_modify shift yes
```

Next we set the LJ parameters for the interactions between atom types `1` and `1` (the only we have, there can be more), ε, the maximum depth of the energy well, and σ, the zero-crossing distance for the potential.
Note that these are both relative to the non-shifted potential.

```
pair_coeff  1 1 1.0 1.0
```

Finally, we set the mass of atom type 1 to 1.0 units

```
mass        1 1.0
```

There are many other characteristics that may be needed for a given simulation.
For example, LAMMPS has functions to simulate bonds, angles, dihedrals, impropers, and more.

## Neighbour lists

To improve simulation performance, and because we are truncating interactions at a certain distance, we can keep a list of particles that are close to each other (under a neighbour cutoff distance).
This reduces the number of comparisons needed per timestep, at the cost of a small amount of memory.

{% include figure.html url="" max-width="80%" file="/fig/2_MD-primera/cutoff.png" alt="Neighbour lists" %}

So we can add a 0.3σ distance to our neight cutoff, above the LJ cutoff, so a total of 3.8σ.
The `bin` keyword refers to the algorithm used to build the list, `bin` is the best performing one for systems with homogenous sizes of particles.

```
neighbor        0.3 bin
```

However, these lists need to be updated periodically, essentially more often than it takes for a particle to move neighbour_cutoff - LJ_cutoff.
This is what the next command does.
The `delay` parameter sets the minimum number of timesteps that need to pass since the last neighbour list rebuild for LAMMPS to even consider rebuilding it again.
The `every` parameter tells LAMMPS to attempt to build the neighbour list if `number_time_step mod every = 0` -- by default, the rebuild will only be triggered if an atom has moved more than half the neighbour skin distance (the 0.3 above)

```
neigh_modify    delay 10 every 1
```

## Simulation parameters

Now that we set up the initial conditions for the simulation, and changed some settings to make sure it runs a bit faster, all that is left is telling LAMMPS exactly how we want the simulation to be.
This includes, but is not limited to, what ensemble to use (and which particles to apply it to), how bit is the timestep, how many timesteps we want to simulate, what properties we want as output, and how often.

The `fix` command has myriad options, most of them related to 'setting' certain properties at a value, or in an interval of values for one, all, or some particles in the simulation.

The first keywords are always `ID` -- a name to reference the fix by, and `group-ID` -- which particles to apply the command to.
The most common option for the second keyword is `all`.

```
fix     1 all nvt temp 1.00 1.00 5.0
```

Then we have the styles plus the arguments.
In the case above, the style is `nvt`, and the arguments are the temperatures at the start and end of the simulation run (`Tstart` and `Tstop`), and the temperature damping parameter (`Tdamp`), in time units.
[comment]: # (A Nose-Hoover thermostat will not work well for arbitrary values of Tdamp. If Tdamp is too small, the temperature can fluctuate wildly; if it is too large, the temperature will take a very long time to equilibrate. A good choice for many models is a Tdamp of around 100 timesteps. Note that this is NOT the same as 100 time units for most units settings.)

Another example of what a `fix` can do, is set a property (in this case, momentum), to a certain value:

```
fix     LinMom all momentum 50 linear 1 1 1 angular
```

This zeroes the linear momenta of all particles in all directions, as well as the angular momentum.

## Final setup

Although we created a number of particles in a box, if we were to run a simulation, not much would happen, because these particles do not have any starting velocities.
To change this, we use the `velocity` command, which generates an ensemble of velocities for the particles in the chosen group (in this case, `all`):

[comment]: # (JS says gaussian in video, but default is uniform)
```
velocity      all create 1.0 199085 mom no
```

The arguments after the `create` stype are the _temperature_ and _seed number_.
The `mom no` keyword/value pair prevents LAMMPS from zero-ing the linear momenta from the system.
[comment]: # (this seems to be opposite what we want, according to video)

Then we set the size of the timestep, in whatever units we have chosen for this simulation -- in this case, LJ units.

```
timestep      0.005
```

The size of the timestep is a careful juggling of speed vs. accuracy.
A small timestep guarantees that no particle interactions are missing, at the cost of a lot of computation time.
A large timestep allows for simulations that probe effects at long time scales, but risks a particle moving so much in each timestep, that some interactions are missed -- in extreme cases, some particles can 'fly' right through each other.
The 'happy medium' depends on the system type, size, and temperature, and can be estimated from the average diffusion of the particles.

The next line sets what thermodynamic information we want LAMMPS to output to the terminal and the log file.

```
thermo_style  custom step temp etotal pe ke press vol density
```

There are several default styles, and the `custom` style allows for full customization of which fields and in which order to write them.
To choose how often to write these fields, the command is:

```
thermo        500
```

To force LAMMPS to use the verlet algorithm (rather than the default velocity-verlet), we use:

```
run_style     verlet
```

And finally, we choose how many timesteps (**not time-units**) to run the simulation for:

```
run           50000
```

## Log file

The logfile is where we can find thermodynamic information of interest.
By default, the log file name that lammps creates, and which to it writes all the info that shows on the terminal, is `log.lammps`.
To change that, we could use the command:

```
log     new_file_name.extension
```

We can change which file to write to multiple times during a simulation, and even `append` to a file, for example, if we want the thermodynamic data separate from the logging of other assorted commands.
The thermodynamic data, which we setup with the `thermo` and `thermo_style` command, create the following (truncated) output:

```
Step         Temp       TotEng       PotEng       KinEng        Press       Volume      Density
0            1    -2.709841    -4.208341       1.4985   -2.6415761    1666.6667          0.6
```

At the start, we get a header with the column names, and then a line for each timestep that's a multiple of the value we set `thermo` to.
In this example, because we're running an NVT simulation, both the simulation box volume, and the particle density are constant, but using other ensembles that would change.
At the end of each `run` command, we get the analysis of how the simulation time is spent:

```
Loop time of 16.0334 on 64 procs for 50000 steps with 1000 atoms

```

The data here presented is very important, and can help you substantially improve the speed at which your simulations run.
The first line gives us the details of the last `run` command - how many seconds it took, on how many processes it ran on, how many timesteps, and how many atoms.
This can be useful to compare between different systems.

Then we get some benchmark information:

```
```

How many time units per day / how many timesteps per second.
And how much of the available CPU resources LAMMPS was able to use, with how many MPI tasks and OpenMP threads.

The next table shows a breakdown of the time spent on each task by the MPI library.

```
```

The `Pair` line refers to non-bonded force computations, `Bond` includes all bonded interactions, including angles, dihedrals, and impropers, `Kspace` relates to long-range interactions (Ewald, PPPM or MSM), `Neigh` is the contruction of neighbour lists, Comm is inter-processor communication (AKA, parallelization overhead), `Output` is the writing of files (log and dump files), `Modify` is the fixes and computes invoked by fixes, and `Other` is everything else.
Each category shows a breakdown of the least, average, and most amount of wall time any processor spent on each category -- large variability in this (calculated as %varavg) could show that the atom distribution between processors is not optimal.
The final column, %total, is the percentage of the loop time spent in the category.

A rule-of-thumb for %total on each category is:
  - `Pair`: as much as possible.
  - `Neigh`: 10% to 30%.
  - `Kspace`: 10% to 30%.
  - `Comm`: as little as possible. If it's growing large, it's a clear sign that too many computational resources are being assigned to a simulation.

The last line on every LAMMPS simulation will be the total wall time for the entire input script, no matter how many `run` commands it has:

```
```

## Advanced input commands

LAMMPS has a very powerful suite for calculating, and outputing all kinds of physical properties during the simulation.
Calculations are most often under a `compute` command, and then the output is handled by a `fix` command.
As an example, we will now see three examples, but there are (at the time of writing) over 150 different `compute` commands with many options each).

The first is a Radial Distribution Function, _g_(_r_), describes how the density of a particles varies as a function of the distance to the reference particle, compared with an uniform distribution (that is, at r → ∞, _g_(_r_) → 1).
Briefly, the `compute` command below, named `RDF` and applied to the atom-group `all`, is a compute of style `rdf`, with 150 bins for the RDF histogram, with a `cutoff` at 3.5σ.
There are optional parameters for calculating RDFs between specific pairs (or groups of pairs) of atom types, see the manual for more information.

```
compute        RDF all rdf 150 cutoff 3.5
fix            RDF_OUTPUT all ave/time 25 100 5000 c_RDF[*] file rdf_lj.out mode vector
```

The compute command is instantaneous, that is, they calculate the values for the current timestep, but that doesn't mean they calculate quantities every timestep.
A compute only calculates quantities when needed, _i.e._, when called by another command.
In this case, the `fix ave/time` command, that averages a quantity over time, and outputs it over a long timescale.
The parameters are: `RDF_OUTPUT` is the name of the fix, `all` is the group of particles it applies to, `ave/time` is the style of fix (there are many others).
Then, the group of three numbers `25 100 5000` are the `Nevery`, `Nrepeat`, `Nfreq` arguments.
These can be quite tricky to understand, as they interplay with eachother.
`Nfreq` is how often a value is written to file, `Nrepeat` is how many sets of values we want to average over (number of samples), and `Nevery` is how many timesteps in between samples.
So, for example, an `Nevery` of 2, with `Nrepeat` of 3, and `Nfreq` of 100 means that at every timestep multiple of 100, there will be an average written to file, that was calculated by taking 3 samples, 2 timesteps appart -- _i.e._, timesteps 96, 98, and 100 are averaged, and the average is written to file, and the same at timesteps 196, 198, and 200, etc.
In this case, we take a sample every 25 timesteps, 100 times, and output at timestep number 5000 -- so from timestep 2500 to 5000, sampling every 25 timesteps.
This means that `Nfreq` must be a multiple of `Nevery`, and `Nevery` must be non-zero even if `Nrepeat = 1`.
The following argument, `c_RDF[*]`, is the quantity to be averaged over.
The beggining `c_` indicates this is a compute ID, and the `[*]` wildcard in conjunction with `mode vector` makes the fix calculate the average for all the columns in the compute ID.
Finally, the `file rdf_lj.out` argument tells LAMMPS where to write the data to.
This file looks something like this:

```
# Time-averaged data for fix RDF_OUTPUT
# TimeStep Number-of-rows
# Row c_RDF[1] c_RDF[2] c_RDF[3]
105000 150
...
```

Since version 4May2022 of LAMMPS, writing to YAML files support was added.
To write a YAML file, just change the extension accordingly `file rdf_lj.yaml`.
The file will then be in YAML format:

```
# Time-averaged data for fix RDF_OUTPUT_YAML
# TimeStep Number-of-rows
# Row c_RDF[1] c_RDF[2] c_RDF[3]
---
keywords: ['c_RDF[1]', 'c_RDF[2]', 'c_RDF[3]', ]
data:
  105000:
  - [0.011666666666666691, 0, 0, ]
  - [0.035000000000000045, 0, 0, ]
  - [0.05833333333333334, 0, 0, ]
...
```

The next example calculates the mean-squared displacement of a group of atoms (in this case, `all`).

```
compute        MSD all msd
fix            MSD_OUTPUT all ave/correlate 1 5000 5000 c_MSD[*] file msd_lj.out ave running
```

[comment]: # (never done MSD or time correlations, this needs some more explaining)
The `fix` is then taking a sample every timestep, and at timesteps divisible by 5000 it calculates the time correlation and writes it down to file (so, we get two values, at the start of the run, and end of the run).

And the final example is a velocity auto-correlation function

```
compute        VACF all vacf
fix            VACF_OUTPUT all ave/correlate 1 2500 5000 c_VACF[*] file vacf_lj.out ave running
```

[comment]: # (ditto from what I said about MSD)
Here the fix is taking 2500 samples from timestep 2501 to 5000.

The `dump` command allows to write trajectory files -- files that have the coordinates (and sometimes other properties) of each particle at a regular interval.
These are important to create visual representations of the evolution of the simulation (AKA molecular movies) or to allow for the calculation of properties after the simulation is done, without the need to re-run the simulation.

```
dump           2 all custom 1000 positions.lammpstrj id x y z vx vy vz
dump_modify    2 sort id
```

The `dump` command has id `2`, and will output information for `all` particles.
The style is `custom`, and will write to file `positions.lammpstrj` every `1000` timesteps.
The `custom` style is configurable, and we request that each atom has the following properties written to file: atom `id`, positions in the 3 directions, and velocity magnitudes in the 3 directions.
The `dump_modify` command makes sure that the atoms are written in order of `id`, rather than in whatever order they happen to get calculated.

Finally, we tell LAMMPS to run this section (with the computes and fixes) for `5000` timesteps.

```
run            5000
```

To allow the continuation of the simulation (with the caveat that it must continue to run in the same number of cores as it was), we can create a restart file:
This binary file contains information about system topology, force-fields, but not about computes, fixes, etc, these need to be re-defined in a new input file.

```
write_restart  restart2.lj.equil
```

An, arguably, better solution is to write a data file, which not only is a text file, but can then be used without restrictions in a different hardware configuration, or even LAMMPS version.

```
write_data  lj.equil.data
```

## Variables and loops

LAMMPS input scripts can be quite complex, and it can be useful to run the same script many times with only a small difference (for example, temperature).
For this reason, LAMMPS have implemented variables and loops -- but this doesn't mean that we can only use variables *with* loops.

A variable in LAMMPS is defined with the keyword `variable`, then a `name`, and then style and arguments, for example:

```
variable temperature equal 1.0
```

There are several styles (see the manual), but of note are `delete`, `index`, `loop`, and `equal`.
`equal` is the workhorse of the styles, and it can set a variable to a number, thermo keywords, math operators or functions, among other things.
`delete` unsets a variable.
`loop` and `index` are simular, with the difference that `loop` accepts an integer / range, while `index` accepts a list of strings.

To use a variable later in the script, just prepend a dollar sign, like so:

```
fix     1 all nvt temp $temperature $temperature 5.0
```

Example of loop:

```
variable a loop 10
label loop
dump 1 all atom 100 file.$a
run 10000
undump 1
next a
jump SELF loop
```

and of `index`:

```
variable d index run1 run2 run3 run4 run5 run6 run7 run8
label loop
shell cd $d
read_data data.polymer
run 10000
shell cd ..
clear
next d
jump SELF
```

1h30-ish
more topics:

- vmd visualization (maybe better as a demonstration?)
- other packages - ovito, mdanalysis, pylat, packmol, topotools
- variables

[comment]: # (move whole file somewhere else?)
```
LAMMPS (29 Sep 2021 - Update 2)
####################################
# Example LAMMPS input script      #
# for a simple Lennard Jones fluid #
####################################

####################################
# 1) Set up simulation box
#   - We set a 3D periodic box
#   - Our box has 10x10x10 atom
#     positions, evenly distributed
#   - The atom starting sites are
#     separated such that the box
#     density is 0.6
####################################

units         lj
atom_style    atomic
dimension     3
boundary      p p p

lattice       sc 0.60
Lattice spacing in x,y,z = 1.1856311 1.1856311 1.1856311
region        region1 block 0 10 0 10 0 10
create_box    1 region1
Created orthogonal box = (0.0000000 0.0000000 0.0000000) to (11.856311 11.856311 11.856311)
create_atoms  1 box
Created 1000 atoms

####################################
# 2) Define interparticle interactions
#   - Here, we use truncated & shifted LJ
#   - All atoms of type 1 (in this case, all atoms)
#     have a mass of 1.0
####################################

pair_style  lj/cut 3.5
pair_modify shift yes
pair_coeff  1 1 1.0 1.0
mass        1 1.0

####################################
# 3) Neighbour lists
#   - Each atom will only consider neighbours
#     within a distance of 3.8 of each other
#   - The neighbour lists are recalculated
#     every timestep
####################################

neighbor        0.3 bin
neigh_modify    delay 10 every 2

####################################
# 4) Define simulation parameters
#   - We fix the temperature and
#     linear and angular momenta
#     of the system
#   - We run with fixed number (n),
#     volume (v), temperature (t)
####################################

fix     LinMom all momentum 50 linear 1 1 1 angular
fix     1 all nvt temp 1.00 1.00 5.0
#fix    1 all npt temp 1.0 1.0 25.0 iso 1.5150 1.5150  10.0

####################################
# 5) Final setup
#   - Define starting particle velocity
#   - Define timestep
#   - Define output system properties (temp, energy, etc.)
#   - Define simulation length
####################################

velocity      all create 1.0 199085 mom no

timestep      0.005

thermo_style  custom step temp etotal pe ke press vol density
thermo        500

run_style     verlet

run           50000
  update every 2 steps, delay 10 steps, check yes
Step Temp TotEng PotEng KinEng Press Volume Density
0            1    -2.709841    -4.208341       1.4985   -2.6415761    1666.6667          0.6
Averages over the last 51 of 101 rows, steps 25000 to 50000:
Temp TotEng PotEng KinEng Press Volume Density
0.996252 -2.51552 -4.0084 1.49288 -0.159682 1666.67 0.6
Loop time of 16.0334 on 64 procs for 50000 steps with 1000 atoms

```

[comment]: # (move whole file somewhere else?)
```
####################################
# Example LAMMPS input script      #
# for a simple Lennard Jones fluid #
####################################

####################################
# 1) Set up simulation box
#   - We set a 3D periodic box
#   - Our box has 10x10x10 atom
#     positions, evenly distributed
#   - The atom starting sites are
#     separated such that the box
#     density is 0.6
####################################

units         lj
atom_style    atomic
dimension     3
boundary      p p p

lattice       sc 0.60
region        region1 block 0 10 0 10 0 10
create_box    1 region1
create_atoms  1 box

####################################
# 2) Define interparticle interactions
#   - Here, we use truncated & shifted LJ
#   - All atoms of type 1 (in this case, all atoms)
#     have a mass of 1.0
####################################

pair_style  lj/cut 3.5
pair_modify shift yes
pair_coeff  1 1 1.0 1.0
mass        1 1.0

####################################
# 3) Neighbour lists
#   - Each atom will only consider neighbours
#     within a distance of 3.8 of each other
#   - The neighbour lists are recalculated
#     every timestep
####################################

neighbor        0.3 bin
neigh_modify    delay 10 every 1

####################################
# 4) Define simulation parameters
#   - We fix the temperature and
#     linear and angular momenta
#     of the system
#   - We run with fixed number (n),
#     volume (v), temperature (t)
####################################

fix     LinMom all momentum 50 linear 1 1 1 angular
fix     1 all nvt temp 1.00 1.00 5.0
#fix    1 all npt temp 1.0 1.0 25.0 iso 1.5150 1.5150  10.0

####################################
# 5) Final setup
#   - Define starting particle velocity
#   - Define timestep
#   - Define output system properties (temp, energy, etc.)
#   - Define simulation length
####################################

velocity      all create 1.0 199085 mom no

timestep      0.005

thermo_style  custom step temp etotal pe ke press vol density
thermo        500

run_style     verlet

run           50000
```

{: .callout}

{% include links.md %}
